
This summary information was generated by ElastoDyn on 17-Oct-2025 at 08:06:07.


Turbine features:

            Upwind, 3-bladed rotor with rigid hub.
            The model has 15 of 24 DOFs active (enabled) at start-up.
 Disabled   Platform horizontal surge translation DOF 
 Disabled   Platform horizontal sway translation DOF 
 Disabled   Platform vertical heave translation DOF 
 Disabled   Platform roll tilt rotation DOF 
 Disabled   Platform pitch tilt rotation DOF 
 Disabled   Platform yaw rotation DOF 
 Enabled    1st tower fore-aft bending mode DOF 
 Enabled    1st tower side-to-side bending mode DOF 
 Enabled    2nd tower fore-aft bending mode DOF 
 Enabled    2nd tower side-to-side bending mode DOF 
 Enabled    Nacelle yaw DOF 
 Disabled   Rotor-furl DOF 
 Enabled    Variable speed generator DOF 
 Disabled   Drivetrain rotational-flexibility DOF 
 Disabled   Tail-furl DOF 
 Enabled    1st flapwise bending-mode DOF of blade 1 
 Enabled    1st edgewise bending-mode DOF of blade 1 
 Enabled    2nd flapwise bending-mode DOF of blade 1 
 Enabled    1st flapwise bending-mode DOF of blade 2 
 Enabled    1st edgewise bending-mode DOF of blade 2 
 Enabled    2nd flapwise bending-mode DOF of blade 2 
 Enabled    1st flapwise bending-mode DOF of blade 3 
 Enabled    1st edgewise bending-mode DOF of blade 3 
 Enabled    2nd flapwise bending-mode DOF of blade 3 


Time steps:

    Structural            (s)        0.00500000


Some calculated parameters:

    Hub-Height            (m)            29.485
    Flexible Tower Length (m)            28.866
    Flexible Blade Length (m)             4.701


Rotor mass properties:

    Rotor Mass            (kg)          169.991
    Rotor Inertia         (kg-m^2)      239.719
                                        Blade 1      Blade 2      Blade 3
                                        -------      -------      -------
    Mass                  (kg)           17.950       17.950       17.950
    Second Mass Moment    (kg-m^2)       71.359       71.359       71.359
    First Mass Moment     (kg-m)         28.681       28.681       28.681
    Center of Mass        (m)             1.598        1.598        1.598


Additional mass properties:

    Tower-top Mass        (kg)          631.901
    Tower Mass            (kg)         1952.612
    Platform Mass         (kg)            0.000
    Mass Incl. Platform   (kg)         2584.512


Interpolated tower properties:

Node  TwFract   HNodes  DHNodes  TMassDen    FAStiff    SSStiff
 (-)      (-)      (m)      (m)    (kg/m)     (Nm^2)     (Nm^2)
   1    0.050    1.443    2.887    89.040  2.121E+09  2.121E+09
   2    0.150    4.330    2.887    89.040  1.728E+09  1.728E+09
   3    0.250    7.216    2.887    80.370  1.373E+09  1.373E+09
   4    0.350   10.103    2.887    80.370  1.064E+09  1.064E+09
   5    0.450   12.990    2.887    46.250  6.019E+08  6.019E+08
   6    0.550   15.876    2.887    46.250  4.262E+08  4.262E+08
   7    0.650   18.763    2.887    52.140  2.810E+08  2.810E+08
   8    0.750   21.650    2.887    52.140  1.644E+08  1.644E+08
   9    0.850   24.536    2.887    59.950  1.382E+08  1.382E+08
  10    0.950   27.423    2.887    80.890  4.537E+07  4.537E+07


Interpolated blade 1 properties:

Node  BlFract   RNodes  DRNodes PitchAxis  StrcTwst  BMassDen    FlpStff    EdgStff
 (-)      (-)      (m)      (m)       (-)     (deg)    (kg/m)     (Nm^2)     (Nm^2)
   1    0.010    0.148    0.094     0.250     0.000     7.010  1.400E+05  7.000E+05
   2    0.030    0.242    0.094     0.250     0.000     7.010  1.400E+05  7.000E+05
   3    0.050    0.336    0.094     0.250     0.000     7.010  1.400E+05  7.000E+05
   4    0.070    0.430    0.094     0.250     0.000     7.010  1.400E+05  7.000E+05
   5    0.090    0.524    0.094     0.250     0.000     7.010  1.400E+05  7.000E+05
   6    0.110    0.618    0.094     0.250     0.000     7.010  1.400E+05  7.000E+05
   7    0.130    0.712    0.094     0.250     0.000     7.010  1.400E+05  7.000E+05
   8    0.150    0.806    0.094     0.250     0.000     7.010  1.400E+05  7.000E+05
   9    0.170    0.900    0.094     0.250     0.000     7.010  1.400E+05  7.000E+05
  10    0.190    0.994    0.094     0.250     0.000     7.010  1.400E+05  7.000E+05
  11    0.210    1.088    0.094     0.250     0.000     6.889  1.355E+05  6.775E+05
  12    0.230    1.182    0.094     0.250     0.000     6.647  1.265E+05  6.325E+05
  13    0.250    1.276    0.094     0.250     0.000     6.405  1.175E+05  5.875E+05
  14    0.270    1.370    0.094     0.250     0.000     6.163  1.085E+05  5.425E+05
  15    0.290    1.464    0.094     0.250     0.000     5.921  9.950E+04  4.975E+05
  16    0.310    1.558    0.094     0.250     0.000     5.610  8.910E+04  4.455E+05
  17    0.330    1.652    0.094     0.250     0.000     5.230  7.730E+04  3.865E+05
  18    0.350    1.746    0.094     0.250     0.000     4.850  6.550E+04  3.275E+05
  19    0.370    1.840    0.094     0.250     0.000     4.470  5.370E+04  2.685E+05
  20    0.390    1.934    0.094     0.250     0.000     4.090  4.190E+04  2.095E+05
  21    0.410    2.028    0.094     0.250     0.000     3.795  3.390E+04  1.695E+05
  22    0.430    2.122    0.094     0.250     0.000     3.585  2.970E+04  1.485E+05
  23    0.450    2.216    0.094     0.250     0.000     3.375  2.550E+04  1.275E+05
  24    0.470    2.310    0.094     0.250     0.000     3.165  2.130E+04  1.065E+05
  25    0.490    2.404    0.094     0.250     0.000     2.955  1.710E+04  8.550E+04
  26    0.510    2.498    0.094     0.250     0.000     2.792  1.420E+04  7.100E+04
  27    0.530    2.592    0.094     0.250     0.000     2.676  1.260E+04  6.300E+04
  28    0.550    2.686    0.094     0.250     0.000     2.560  1.100E+04  5.500E+04
  29    0.570    2.780    0.094     0.250     0.000     2.444  9.400E+03  4.700E+04
  30    0.590    2.874    0.094     0.250     0.000     2.328  7.800E+03  3.900E+04
  31    0.610    2.968    0.094     0.250     0.000     2.251  6.670E+03  3.335E+04
  32    0.630    3.062    0.094     0.250     0.000     2.213  6.010E+03  3.005E+04
  33    0.650    3.156    0.094     0.250     0.000     2.175  5.350E+03  2.675E+04
  34    0.670    3.250    0.094     0.250     0.000     2.137  4.690E+03  2.345E+04
  35    0.690    3.344    0.094     0.250     0.000     2.099  4.030E+03  2.015E+04
  36    0.710    3.438    0.094     0.250     0.000     2.062  3.575E+03  1.788E+04
  37    0.730    3.533    0.094     0.250     0.000     2.026  3.325E+03  1.664E+04
  38    0.750    3.627    0.094     0.250     0.000     1.990  3.075E+03  1.540E+04
  39    0.770    3.721    0.094     0.250     0.000     1.954  2.825E+03  1.416E+04
  40    0.790    3.815    0.094     0.250     0.000     1.918  2.575E+03  1.292E+04
  41    0.810    3.909    0.094     0.250     0.000     1.864  2.335E+03  1.172E+04
  42    0.830    4.003    0.094     0.250     0.000     1.792  2.105E+03  1.056E+04
  43    0.850    4.097    0.094     0.250     0.000     1.720  1.875E+03  9.400E+03
  44    0.870    4.191    0.094     0.250     0.000     1.648  1.645E+03  8.240E+03
  45    0.890    4.285    0.094     0.250     0.000     1.576  1.415E+03  7.080E+03
  46    0.910    4.379    0.094     0.250     0.000     1.468  1.190E+03  5.950E+03
  47    0.930    4.473    0.094     0.250     0.000     1.324  9.700E+02  4.850E+03
  48    0.950    4.567    0.094     0.250     0.000     1.180  7.500E+02  3.750E+03
  49    0.970    4.661    0.094     0.250     0.000     0.888  5.300E+02  2.650E+03
  50    0.990    4.755    0.094     0.250     0.000     0.596  3.100E+02  1.550E+03


Interpolated blade 2 properties:

Node  BlFract   RNodes  DRNodes PitchAxis  StrcTwst  BMassDen    FlpStff    EdgStff
 (-)      (-)      (m)      (m)       (-)     (deg)    (kg/m)     (Nm^2)     (Nm^2)
   1    0.010    0.148    0.094     0.250     0.000     7.010  1.400E+05  7.000E+05
   2    0.030    0.242    0.094     0.250     0.000     7.010  1.400E+05  7.000E+05
   3    0.050    0.336    0.094     0.250     0.000     7.010  1.400E+05  7.000E+05
   4    0.070    0.430    0.094     0.250     0.000     7.010  1.400E+05  7.000E+05
   5    0.090    0.524    0.094     0.250     0.000     7.010  1.400E+05  7.000E+05
   6    0.110    0.618    0.094     0.250     0.000     7.010  1.400E+05  7.000E+05
   7    0.130    0.712    0.094     0.250     0.000     7.010  1.400E+05  7.000E+05
   8    0.150    0.806    0.094     0.250     0.000     7.010  1.400E+05  7.000E+05
   9    0.170    0.900    0.094     0.250     0.000     7.010  1.400E+05  7.000E+05
  10    0.190    0.994    0.094     0.250     0.000     7.010  1.400E+05  7.000E+05
  11    0.210    1.088    0.094     0.250     0.000     6.889  1.355E+05  6.775E+05
  12    0.230    1.182    0.094     0.250     0.000     6.647  1.265E+05  6.325E+05
  13    0.250    1.276    0.094     0.250     0.000     6.405  1.175E+05  5.875E+05
  14    0.270    1.370    0.094     0.250     0.000     6.163  1.085E+05  5.425E+05
  15    0.290    1.464    0.094     0.250     0.000     5.921  9.950E+04  4.975E+05
  16    0.310    1.558    0.094     0.250     0.000     5.610  8.910E+04  4.455E+05
  17    0.330    1.652    0.094     0.250     0.000     5.230  7.730E+04  3.865E+05
  18    0.350    1.746    0.094     0.250     0.000     4.850  6.550E+04  3.275E+05
  19    0.370    1.840    0.094     0.250     0.000     4.470  5.370E+04  2.685E+05
  20    0.390    1.934    0.094     0.250     0.000     4.090  4.190E+04  2.095E+05
  21    0.410    2.028    0.094     0.250     0.000     3.795  3.390E+04  1.695E+05
  22    0.430    2.122    0.094     0.250     0.000     3.585  2.970E+04  1.485E+05
  23    0.450    2.216    0.094     0.250     0.000     3.375  2.550E+04  1.275E+05
  24    0.470    2.310    0.094     0.250     0.000     3.165  2.130E+04  1.065E+05
  25    0.490    2.404    0.094     0.250     0.000     2.955  1.710E+04  8.550E+04
  26    0.510    2.498    0.094     0.250     0.000     2.792  1.420E+04  7.100E+04
  27    0.530    2.592    0.094     0.250     0.000     2.676  1.260E+04  6.300E+04
  28    0.550    2.686    0.094     0.250     0.000     2.560  1.100E+04  5.500E+04
  29    0.570    2.780    0.094     0.250     0.000     2.444  9.400E+03  4.700E+04
  30    0.590    2.874    0.094     0.250     0.000     2.328  7.800E+03  3.900E+04
  31    0.610    2.968    0.094     0.250     0.000     2.251  6.670E+03  3.335E+04
  32    0.630    3.062    0.094     0.250     0.000     2.213  6.010E+03  3.005E+04
  33    0.650    3.156    0.094     0.250     0.000     2.175  5.350E+03  2.675E+04
  34    0.670    3.250    0.094     0.250     0.000     2.137  4.690E+03  2.345E+04
  35    0.690    3.344    0.094     0.250     0.000     2.099  4.030E+03  2.015E+04
  36    0.710    3.438    0.094     0.250     0.000     2.062  3.575E+03  1.788E+04
  37    0.730    3.533    0.094     0.250     0.000     2.026  3.325E+03  1.664E+04
  38    0.750    3.627    0.094     0.250     0.000     1.990  3.075E+03  1.540E+04
  39    0.770    3.721    0.094     0.250     0.000     1.954  2.825E+03  1.416E+04
  40    0.790    3.815    0.094     0.250     0.000     1.918  2.575E+03  1.292E+04
  41    0.810    3.909    0.094     0.250     0.000     1.864  2.335E+03  1.172E+04
  42    0.830    4.003    0.094     0.250     0.000     1.792  2.105E+03  1.056E+04
  43    0.850    4.097    0.094     0.250     0.000     1.720  1.875E+03  9.400E+03
  44    0.870    4.191    0.094     0.250     0.000     1.648  1.645E+03  8.240E+03
  45    0.890    4.285    0.094     0.250     0.000     1.576  1.415E+03  7.080E+03
  46    0.910    4.379    0.094     0.250     0.000     1.468  1.190E+03  5.950E+03
  47    0.930    4.473    0.094     0.250     0.000     1.324  9.700E+02  4.850E+03
  48    0.950    4.567    0.094     0.250     0.000     1.180  7.500E+02  3.750E+03
  49    0.970    4.661    0.094     0.250     0.000     0.888  5.300E+02  2.650E+03
  50    0.990    4.755    0.094     0.250     0.000     0.596  3.100E+02  1.550E+03


Interpolated blade 3 properties:

Node  BlFract   RNodes  DRNodes PitchAxis  StrcTwst  BMassDen    FlpStff    EdgStff
 (-)      (-)      (m)      (m)       (-)     (deg)    (kg/m)     (Nm^2)     (Nm^2)
   1    0.010    0.148    0.094     0.250     0.000     7.010  1.400E+05  7.000E+05
   2    0.030    0.242    0.094     0.250     0.000     7.010  1.400E+05  7.000E+05
   3    0.050    0.336    0.094     0.250     0.000     7.010  1.400E+05  7.000E+05
   4    0.070    0.430    0.094     0.250     0.000     7.010  1.400E+05  7.000E+05
   5    0.090    0.524    0.094     0.250     0.000     7.010  1.400E+05  7.000E+05
   6    0.110    0.618    0.094     0.250     0.000     7.010  1.400E+05  7.000E+05
   7    0.130    0.712    0.094     0.250     0.000     7.010  1.400E+05  7.000E+05
   8    0.150    0.806    0.094     0.250     0.000     7.010  1.400E+05  7.000E+05
   9    0.170    0.900    0.094     0.250     0.000     7.010  1.400E+05  7.000E+05
  10    0.190    0.994    0.094     0.250     0.000     7.010  1.400E+05  7.000E+05
  11    0.210    1.088    0.094     0.250     0.000     6.889  1.355E+05  6.775E+05
  12    0.230    1.182    0.094     0.250     0.000     6.647  1.265E+05  6.325E+05
  13    0.250    1.276    0.094     0.250     0.000     6.405  1.175E+05  5.875E+05
  14    0.270    1.370    0.094     0.250     0.000     6.163  1.085E+05  5.425E+05
  15    0.290    1.464    0.094     0.250     0.000     5.921  9.950E+04  4.975E+05
  16    0.310    1.558    0.094     0.250     0.000     5.610  8.910E+04  4.455E+05
  17    0.330    1.652    0.094     0.250     0.000     5.230  7.730E+04  3.865E+05
  18    0.350    1.746    0.094     0.250     0.000     4.850  6.550E+04  3.275E+05
  19    0.370    1.840    0.094     0.250     0.000     4.470  5.370E+04  2.685E+05
  20    0.390    1.934    0.094     0.250     0.000     4.090  4.190E+04  2.095E+05
  21    0.410    2.028    0.094     0.250     0.000     3.795  3.390E+04  1.695E+05
  22    0.430    2.122    0.094     0.250     0.000     3.585  2.970E+04  1.485E+05
  23    0.450    2.216    0.094     0.250     0.000     3.375  2.550E+04  1.275E+05
  24    0.470    2.310    0.094     0.250     0.000     3.165  2.130E+04  1.065E+05
  25    0.490    2.404    0.094     0.250     0.000     2.955  1.710E+04  8.550E+04
  26    0.510    2.498    0.094     0.250     0.000     2.792  1.420E+04  7.100E+04
  27    0.530    2.592    0.094     0.250     0.000     2.676  1.260E+04  6.300E+04
  28    0.550    2.686    0.094     0.250     0.000     2.560  1.100E+04  5.500E+04
  29    0.570    2.780    0.094     0.250     0.000     2.444  9.400E+03  4.700E+04
  30    0.590    2.874    0.094     0.250     0.000     2.328  7.800E+03  3.900E+04
  31    0.610    2.968    0.094     0.250     0.000     2.251  6.670E+03  3.335E+04
  32    0.630    3.062    0.094     0.250     0.000     2.213  6.010E+03  3.005E+04
  33    0.650    3.156    0.094     0.250     0.000     2.175  5.350E+03  2.675E+04
  34    0.670    3.250    0.094     0.250     0.000     2.137  4.690E+03  2.345E+04
  35    0.690    3.344    0.094     0.250     0.000     2.099  4.030E+03  2.015E+04
  36    0.710    3.438    0.094     0.250     0.000     2.062  3.575E+03  1.788E+04
  37    0.730    3.533    0.094     0.250     0.000     2.026  3.325E+03  1.664E+04
  38    0.750    3.627    0.094     0.250     0.000     1.990  3.075E+03  1.540E+04
  39    0.770    3.721    0.094     0.250     0.000     1.954  2.825E+03  1.416E+04
  40    0.790    3.815    0.094     0.250     0.000     1.918  2.575E+03  1.292E+04
  41    0.810    3.909    0.094     0.250     0.000     1.864  2.335E+03  1.172E+04
  42    0.830    4.003    0.094     0.250     0.000     1.792  2.105E+03  1.056E+04
  43    0.850    4.097    0.094     0.250     0.000     1.720  1.875E+03  9.400E+03
  44    0.870    4.191    0.094     0.250     0.000     1.648  1.645E+03  8.240E+03
  45    0.890    4.285    0.094     0.250     0.000     1.576  1.415E+03  7.080E+03
  46    0.910    4.379    0.094     0.250     0.000     1.468  1.190E+03  5.950E+03
  47    0.930    4.473    0.094     0.250     0.000     1.324  9.700E+02  4.850E+03
  48    0.950    4.567    0.094     0.250     0.000     1.180  7.500E+02  3.750E+03
  49    0.970    4.661    0.094     0.250     0.000     0.888  5.300E+02  2.650E+03
  50    0.990    4.755    0.094     0.250     0.000     0.596  3.100E+02  1.550E+03


Requested Outputs:


 Col   Parameter            Units               
 ---   ---------------      ---------------     
   0   Time                 (s)                 
   1   Azimuth              (deg)               
   2   NacYaw               (deg)               
   3   RotSpeed             (rpm)               
   4   RotThrust            (kN)                
   5   RotTorq              (kN-m)              


  Requested Output Channels at each blade station:
 Col   Parameter            Units               
 ---   ---------------      ---------------     
