
This summary information was generated by ElastoDyn on 17-Oct-2025 at 08:00:13.


Turbine features:

            Upwind, 3-bladed rotor with rigid hub.
            The model has 15 of 24 DOFs active (enabled) at start-up.
 Disabled   Platform horizontal surge translation DOF 
 Disabled   Platform horizontal sway translation DOF 
 Disabled   Platform vertical heave translation DOF 
 Disabled   Platform roll tilt rotation DOF 
 Disabled   Platform pitch tilt rotation DOF 
 Disabled   Platform yaw rotation DOF 
 Enabled    1st tower fore-aft bending mode DOF 
 Enabled    1st tower side-to-side bending mode DOF 
 Enabled    2nd tower fore-aft bending mode DOF 
 Enabled    2nd tower side-to-side bending mode DOF 
 Enabled    Nacelle yaw DOF 
 Disabled   Rotor-furl DOF 
 Enabled    Variable speed generator DOF 
 Disabled   Drivetrain rotational-flexibility DOF 
 Disabled   Tail-furl DOF 
 Enabled    1st flapwise bending-mode DOF of blade 1 
 Enabled    1st edgewise bending-mode DOF of blade 1 
 Enabled    2nd flapwise bending-mode DOF of blade 1 
 Enabled    1st flapwise bending-mode DOF of blade 2 
 Enabled    1st edgewise bending-mode DOF of blade 2 
 Enabled    2nd flapwise bending-mode DOF of blade 2 
 Enabled    1st flapwise bending-mode DOF of blade 3 
 Enabled    1st edgewise bending-mode DOF of blade 3 
 Enabled    2nd flapwise bending-mode DOF of blade 3 


Time steps:

    Structural            (s)        0.00300000


Some calculated parameters:

    Hub-Height            (m)            31.098
    Flexible Tower Length (m)            30.480
    Flexible Blade Length (m)             6.000


Rotor mass properties:

    Rotor Mass            (kg)          329.005
    Rotor Inertia         (kg-m^2)     1304.355
                                        Blade 1      Blade 2      Blade 3
                                        -------      -------      -------
    Mass                  (kg)           78.522       78.522       78.522
    Second Mass Moment    (kg-m^2)      389.828      389.828      389.828
    First Mass Moment     (kg-m)        130.035      130.035      130.035
    Center of Mass        (m)             1.656        1.656        1.656


Additional mass properties:

    Tower-top Mass        (kg)         1278.705
    Tower Mass            (kg)         3364.992
    Platform Mass         (kg)            0.000
    Mass Incl. Platform   (kg)         4643.696


Interpolated tower properties:

Node  TwFract   HNodes  DHNodes  TMassDen    FAStiff    SSStiff
 (-)      (-)      (m)      (m)    (kg/m)     (Nm^2)     (Nm^2)
   1    0.050    1.524    3.048   191.500  5.809E+08  5.809E+08
   2    0.150    4.572    3.048   170.500  4.439E+08  4.439E+08
   3    0.250    7.620    3.048   150.500  3.324E+08  3.324E+08
   4    0.350   10.668    3.048   132.000  2.429E+08  2.429E+08
   5    0.450   13.716    3.048   114.500  1.725E+08  1.725E+08
   6    0.550   16.764    3.048    98.000  1.183E+08  1.183E+08
   7    0.650   19.812    3.048    82.500  7.772E+07  7.772E+07
   8    0.750   22.860    3.048    68.000  4.835E+07  4.835E+07
   9    0.850   25.908    3.048    54.500  2.800E+07  2.800E+07
  10    0.950   28.956    3.048    42.000  1.470E+07  1.470E+07


Interpolated blade 1 properties:

Node  BlFract   RNodes  DRNodes PitchAxis  StrcTwst  BMassDen    FlpStff    EdgStff
 (-)      (-)      (m)      (m)       (-)     (deg)    (kg/m)     (Nm^2)     (Nm^2)
   1    0.033    0.350    0.400     0.250     4.667    39.310  8.763E+05  3.073E+06
   2    0.100    0.750    0.400     0.250    14.000    39.310  8.830E+05  3.400E+06
   3    0.167    1.150    0.400     0.250    12.516    29.007  8.183E+05  3.283E+06
   4    0.233    1.550    0.400     0.250    10.767    13.096  6.503E+05  2.719E+06
   5    0.300    1.950    0.400     0.250     9.986    11.661  3.464E+05  2.653E+06
   6    0.367    2.350    0.400     0.250     9.266    10.586  1.887E+05  2.386E+06
   7    0.433    2.750    0.400     0.250     8.606     9.865  1.743E+05  1.924E+06
   8    0.500    3.150    0.400     0.250     7.400     8.830  1.700E+05  1.409E+06
   9    0.567    3.550    0.400     0.250     6.221     7.733  1.685E+05  9.142E+05
  10    0.633    3.950    0.400     0.250     5.724     6.627  1.713E+05  5.716E+05
  11    0.700    4.350    0.400     0.250     5.279     5.844  1.739E+05  3.809E+05
  12    0.767    4.750    0.400     0.250     4.753     4.702  1.319E+05  2.422E+05
  13    0.833    5.150    0.400     0.250     3.726     3.656  8.743E+04  1.411E+05
  14    0.900    5.550    0.400     0.250     2.456     3.238  8.546E+04  9.674E+04
  15    0.967    5.950    0.400     0.250     2.285     2.839  8.156E+04  6.485E+04


Interpolated blade 2 properties:

Node  BlFract   RNodes  DRNodes PitchAxis  StrcTwst  BMassDen    FlpStff    EdgStff
 (-)      (-)      (m)      (m)       (-)     (deg)    (kg/m)     (Nm^2)     (Nm^2)
   1    0.033    0.350    0.400     0.250     4.667    39.310  8.763E+05  3.073E+06
   2    0.100    0.750    0.400     0.250    14.000    39.310  8.830E+05  3.400E+06
   3    0.167    1.150    0.400     0.250    12.516    29.007  8.183E+05  3.283E+06
   4    0.233    1.550    0.400     0.250    10.767    13.096  6.503E+05  2.719E+06
   5    0.300    1.950    0.400     0.250     9.986    11.661  3.464E+05  2.653E+06
   6    0.367    2.350    0.400     0.250     9.266    10.586  1.887E+05  2.386E+06
   7    0.433    2.750    0.400     0.250     8.606     9.865  1.743E+05  1.924E+06
   8    0.500    3.150    0.400     0.250     7.400     8.830  1.700E+05  1.409E+06
   9    0.567    3.550    0.400     0.250     6.221     7.733  1.685E+05  9.142E+05
  10    0.633    3.950    0.400     0.250     5.724     6.627  1.713E+05  5.716E+05
  11    0.700    4.350    0.400     0.250     5.279     5.844  1.739E+05  3.809E+05
  12    0.767    4.750    0.400     0.250     4.753     4.702  1.319E+05  2.422E+05
  13    0.833    5.150    0.400     0.250     3.726     3.656  8.743E+04  1.411E+05
  14    0.900    5.550    0.400     0.250     2.456     3.238  8.546E+04  9.674E+04
  15    0.967    5.950    0.400     0.250     2.285     2.839  8.156E+04  6.485E+04


Interpolated blade 3 properties:

Node  BlFract   RNodes  DRNodes PitchAxis  StrcTwst  BMassDen    FlpStff    EdgStff
 (-)      (-)      (m)      (m)       (-)     (deg)    (kg/m)     (Nm^2)     (Nm^2)
   1    0.033    0.350    0.400     0.250     4.667    39.310  8.763E+05  3.073E+06
   2    0.100    0.750    0.400     0.250    14.000    39.310  8.830E+05  3.400E+06
   3    0.167    1.150    0.400     0.250    12.516    29.007  8.183E+05  3.283E+06
   4    0.233    1.550    0.400     0.250    10.767    13.096  6.503E+05  2.719E+06
   5    0.300    1.950    0.400     0.250     9.986    11.661  3.464E+05  2.653E+06
   6    0.367    2.350    0.400     0.250     9.266    10.586  1.887E+05  2.386E+06
   7    0.433    2.750    0.400     0.250     8.606     9.865  1.743E+05  1.924E+06
   8    0.500    3.150    0.400     0.250     7.400     8.830  1.700E+05  1.409E+06
   9    0.567    3.550    0.400     0.250     6.221     7.733  1.685E+05  9.142E+05
  10    0.633    3.950    0.400     0.250     5.724     6.627  1.713E+05  5.716E+05
  11    0.700    4.350    0.400     0.250     5.279     5.844  1.739E+05  3.809E+05
  12    0.767    4.750    0.400     0.250     4.753     4.702  1.319E+05  2.422E+05
  13    0.833    5.150    0.400     0.250     3.726     3.656  8.743E+04  1.411E+05
  14    0.900    5.550    0.400     0.250     2.456     3.238  8.546E+04  9.674E+04
  15    0.967    5.950    0.400     0.250     2.285     2.839  8.156E+04  6.485E+04


Requested Outputs:


 Col   Parameter            Units               
 ---   ---------------      ---------------     
   0   Time                 (s)                 
   1   RotSpeed             (rpm)               
   2   NacYawP              (deg)               
   3   NacYawV              (deg/s)             
   4   NacYawA              (deg/s^2)           
   5   RootFzb1             (kN)                
   6   RootFzb2             (kN)                
   7   RootFzb3             (kN)                
   8   RootMedg1            (kN-m)              
   9   RootMedg2            (kN-m)              
  10   RootMedg3            (kN-m)              
  11   RootMflp1            (kN-m)              
  12   RootMflp2            (kN-m)              
  13   RootMflp3            (kN-m)              
  14   LSShftTq             (kN-m)              
  15   LSSTipMys            (kN-m)              
  16   LSSTipMzs            (kN-m)              
  17   RotPwr               (kW)                
  18   RotThrust            (kN)                
  19   YawBrMzp             (kN-m)              
  20   YawBrMxp             (kN-m)              
  21   YawBrMyp             (kN-m)              
  22   TwrBsMxt             (kN-m)              
  23   TwrBsMyt             (kN-m)              
  24   GenSpeed             (rpm)               
  25   NacYaw               (deg)               


  Requested Output Channels at each blade station:
 Col   Parameter            Units               
 ---   ---------------      ---------------     
