
This summary information was generated by ElastoDyn on 16-Oct-2025 at 14:56:34.


Turbine features:

            Downwind, 3-bladed rotor with rigid hub.
            The model has 15 of 24 DOFs active (enabled) at start-up.
 Disabled   Platform horizontal surge translation DOF 
 Disabled   Platform horizontal sway translation DOF 
 Disabled   Platform vertical heave translation DOF 
 Disabled   Platform roll tilt rotation DOF 
 Disabled   Platform pitch tilt rotation DOF 
 Disabled   Platform yaw rotation DOF 
 Enabled    1st tower fore-aft bending mode DOF 
 Enabled    1st tower side-to-side bending mode DOF 
 Enabled    2nd tower fore-aft bending mode DOF 
 Enabled    2nd tower side-to-side bending mode DOF 
 Enabled    Nacelle yaw DOF 
 Disabled   Rotor-furl DOF 
 Enabled    Variable speed generator DOF 
 Disabled   Drivetrain rotational-flexibility DOF 
 Disabled   Tail-furl DOF 
 Enabled    1st flapwise bending-mode DOF of blade 1 
 Enabled    1st edgewise bending-mode DOF of blade 1 
 Enabled    2nd flapwise bending-mode DOF of blade 1 
 Enabled    1st flapwise bending-mode DOF of blade 2 
 Enabled    1st edgewise bending-mode DOF of blade 2 
 Enabled    2nd flapwise bending-mode DOF of blade 2 
 Enabled    1st flapwise bending-mode DOF of blade 3 
 Enabled    1st edgewise bending-mode DOF of blade 3 
 Enabled    2nd flapwise bending-mode DOF of blade 3 


Time steps:

    Structural            (s)        0.00500000


Some calculated parameters:

    Hub-Height            (m)            31.552
    Flexible Tower Length (m)            30.000
    Flexible Blade Length (m)            12.500


Rotor mass properties:

    Rotor Mass            (kg)         1648.373
    Rotor Inertia         (kg-m^2)    29840.750
                                        Blade 1      Blade 2      Blade 3
                                        -------      -------      -------
    Mass                  (kg)          393.104      393.104      393.104
    Second Mass Moment    (kg-m^2)     8562.506     8562.506     8562.506
    First Mass Moment     (kg-m)       1408.197     1408.197     1408.197
    Center of Mass        (m)             3.582        3.582        3.582


Additional mass properties:

    Tower-top Mass        (kg)         7490.574
    Tower Mass            (kg)         7306.946
    Platform Mass         (kg)            0.000
    Mass Incl. Platform   (kg)        14797.521


Interpolated tower properties:

Node  TwFract   HNodes  DHNodes  TMassDen    FAStiff    SSStiff
 (-)      (-)      (m)      (m)    (kg/m)     (Nm^2)     (Nm^2)
   1    0.050    1.500    3.000   451.716  4.907E+09  4.907E+09
   2    0.150    4.500    3.000   330.710  3.014E+09  3.014E+09
   3    0.250    7.500    3.000   290.165  2.040E+09  2.040E+09
   4    0.350   10.500    3.000   262.176  1.500E+09  1.500E+09
   5    0.450   13.500    3.000   238.178  1.125E+09  1.125E+09
   6    0.550   16.500    3.000   208.637  7.578E+08  7.578E+08
   7    0.650   19.500    3.000   184.874  5.260E+08  5.260E+08
   8    0.750   22.500    3.000   168.882  4.008E+08  4.008E+08
   9    0.850   25.500    3.000   150.538  2.849E+08  2.849E+08
  10    0.950   28.500    3.000   149.772  2.464E+08  2.464E+08


Interpolated blade 1 properties:

Node  BlFract   RNodes  DRNodes PitchAxis  StrcTwst  BMassDen    FlpStff    EdgStff
 (-)      (-)      (m)      (m)       (-)     (deg)    (kg/m)     (Nm^2)     (Nm^2)
   1    0.010    0.669    0.250     0.500    11.600   135.752  4.350E+07  4.350E+07
   2    0.030    0.919    0.250     0.464    10.903   116.812  4.105E+07  4.228E+07
   3    0.050    1.169    0.250     0.393     9.518    95.837  3.381E+07  3.749E+07
   4    0.070    1.419    0.250     0.322     8.133    74.862  2.656E+07  3.269E+07
   5    0.090    1.669    0.250     0.251     6.748    53.887  1.931E+07  2.789E+07
   6    0.110    1.919    0.250     0.250     8.624    51.343  1.688E+07  2.899E+07
   7    0.130    2.169    0.250     0.250     9.496    48.881  1.516E+07  2.975E+07
   8    0.150    2.419    0.250     0.250     9.845    46.511  1.374E+07  3.002E+07
   9    0.170    2.669    0.250     0.250     9.882    45.562  1.251E+07  2.845E+07
  10    0.190    2.919    0.250     0.250     9.901    44.578  1.145E+07  2.681E+07
  11    0.210    3.169    0.250     0.250     9.921    43.594  1.038E+07  2.517E+07
  12    0.230    3.419    0.250     0.250     9.862    42.549  9.447E+06  2.352E+07
  13    0.250    3.669    0.250     0.250     9.729    41.446  8.641E+06  2.185E+07
  14    0.270    3.919    0.250     0.250     9.596    40.342  7.834E+06  2.018E+07
  15    0.290    4.169    0.250     0.250     9.463    39.238  7.028E+06  1.852E+07
  16    0.310    4.419    0.250     0.250     9.330    38.135  6.221E+06  1.685E+07
  17    0.330    4.669    0.250     0.250     9.175    37.001  5.505E+06  1.535E+07
  18    0.350    4.919    0.250     0.250     8.977    35.803  4.978E+06  1.417E+07
  19    0.370    5.169    0.250     0.250     8.778    34.604  4.451E+06  1.299E+07
  20    0.390    5.419    0.250     0.250     8.579    33.406  3.924E+06  1.182E+07
  21    0.410    5.669    0.250     0.250     8.381    32.208  3.397E+06  1.064E+07
  22    0.430    5.919    0.250     0.250     8.174    30.990  2.894E+06  9.505E+06
  23    0.450    6.169    0.250     0.250     7.919    29.651  2.538E+06  8.617E+06
  24    0.470    6.419    0.250     0.250     7.665    28.312  2.181E+06  7.729E+06
  25    0.490    6.669    0.250     0.250     7.370    27.213  1.870E+06  6.933E+06
  26    0.510    6.919    0.250     0.250     7.042    26.310  1.594E+06  6.212E+06
  27    0.530    7.169    0.250     0.250     6.714    25.407  1.318E+06  5.490E+06
  28    0.550    7.419    0.250     0.250     6.456    24.553  1.122E+06  4.924E+06
  29    0.570    7.669    0.250     0.250     6.201    23.700  9.295E+05  4.365E+06
  30    0.590    7.919    0.250     0.250     5.873    22.663  7.566E+05  3.840E+06
  31    0.610    8.169    0.250     0.250     5.418    21.309  6.177E+05  3.374E+06
  32    0.630    8.419    0.250     0.250     4.962    19.954  4.788E+05  2.908E+06
  33    0.650    8.669    0.250     0.250     4.516    18.450  3.806E+05  2.488E+06
  34    0.670    8.919    0.250     0.250     4.072    16.902  2.942E+05  2.081E+06
  35    0.690    9.169    0.250     0.250     3.644    15.349  2.152E+05  1.701E+06
  36    0.710    9.419    0.250     0.250     3.285    13.767  1.687E+05  1.439E+06
  37    0.730    9.669    0.250     0.250     2.926    12.186  1.221E+05  1.177E+06
  38    0.750    9.919    0.250     0.250     2.655    11.029  9.015E+04  9.682E+05
  39    0.770   10.169    0.250     0.250     2.443    10.166  6.818E+04  7.969E+05
  40    0.790   10.419    0.250     0.250     2.231     9.302  4.621E+04  6.256E+05
  41    0.810   10.669    0.250     0.250     2.042     8.690  3.592E+04  5.163E+05
  42    0.830   10.919    0.250     0.250     1.853     8.078  2.566E+04  4.071E+05
  43    0.850   11.169    0.250     0.250     1.644     7.330  1.735E+04  3.079E+05
  44    0.870   11.419    0.250     0.250     1.403     6.376  1.200E+04  2.239E+05
  45    0.890   11.669    0.250     0.250     1.161     5.423  6.647E+03  1.399E+05
  46    0.910   11.919    0.250     0.250     0.967     4.669  4.198E+03  9.515E+04
  47    0.930   12.169    0.250     0.250     0.786     3.968  2.531E+03  6.098E+04
  48    0.950   12.419    0.250     0.250     0.623     3.297  1.072E+03  3.080E+04
  49    0.970   12.669    0.250     0.250     0.551     2.774  7.019E+02  2.162E+04
  50    0.990   12.919    0.250     0.250     0.480     2.251  3.321E+02  1.244E+04


Interpolated blade 2 properties:

Node  BlFract   RNodes  DRNodes PitchAxis  StrcTwst  BMassDen    FlpStff    EdgStff
 (-)      (-)      (m)      (m)       (-)     (deg)    (kg/m)     (Nm^2)     (Nm^2)
   1    0.010    0.669    0.250     0.500    11.600   135.752  4.350E+07  4.350E+07
   2    0.030    0.919    0.250     0.464    10.903   116.812  4.105E+07  4.228E+07
   3    0.050    1.169    0.250     0.393     9.518    95.837  3.381E+07  3.749E+07
   4    0.070    1.419    0.250     0.322     8.133    74.862  2.656E+07  3.269E+07
   5    0.090    1.669    0.250     0.251     6.748    53.887  1.931E+07  2.789E+07
   6    0.110    1.919    0.250     0.250     8.624    51.343  1.688E+07  2.899E+07
   7    0.130    2.169    0.250     0.250     9.496    48.881  1.516E+07  2.975E+07
   8    0.150    2.419    0.250     0.250     9.845    46.511  1.374E+07  3.002E+07
   9    0.170    2.669    0.250     0.250     9.882    45.562  1.251E+07  2.845E+07
  10    0.190    2.919    0.250     0.250     9.901    44.578  1.145E+07  2.681E+07
  11    0.210    3.169    0.250     0.250     9.921    43.594  1.038E+07  2.517E+07
  12    0.230    3.419    0.250     0.250     9.862    42.549  9.447E+06  2.352E+07
  13    0.250    3.669    0.250     0.250     9.729    41.446  8.641E+06  2.185E+07
  14    0.270    3.919    0.250     0.250     9.596    40.342  7.834E+06  2.018E+07
  15    0.290    4.169    0.250     0.250     9.463    39.238  7.028E+06  1.852E+07
  16    0.310    4.419    0.250     0.250     9.330    38.135  6.221E+06  1.685E+07
  17    0.330    4.669    0.250     0.250     9.175    37.001  5.505E+06  1.535E+07
  18    0.350    4.919    0.250     0.250     8.977    35.803  4.978E+06  1.417E+07
  19    0.370    5.169    0.250     0.250     8.778    34.604  4.451E+06  1.299E+07
  20    0.390    5.419    0.250     0.250     8.579    33.406  3.924E+06  1.182E+07
  21    0.410    5.669    0.250     0.250     8.381    32.208  3.397E+06  1.064E+07
  22    0.430    5.919    0.250     0.250     8.174    30.990  2.894E+06  9.505E+06
  23    0.450    6.169    0.250     0.250     7.919    29.651  2.538E+06  8.617E+06
  24    0.470    6.419    0.250     0.250     7.665    28.312  2.181E+06  7.729E+06
  25    0.490    6.669    0.250     0.250     7.370    27.213  1.870E+06  6.933E+06
  26    0.510    6.919    0.250     0.250     7.042    26.310  1.594E+06  6.212E+06
  27    0.530    7.169    0.250     0.250     6.714    25.407  1.318E+06  5.490E+06
  28    0.550    7.419    0.250     0.250     6.456    24.553  1.122E+06  4.924E+06
  29    0.570    7.669    0.250     0.250     6.201    23.700  9.295E+05  4.365E+06
  30    0.590    7.919    0.250     0.250     5.873    22.663  7.566E+05  3.840E+06
  31    0.610    8.169    0.250     0.250     5.418    21.309  6.177E+05  3.374E+06
  32    0.630    8.419    0.250     0.250     4.962    19.954  4.788E+05  2.908E+06
  33    0.650    8.669    0.250     0.250     4.516    18.450  3.806E+05  2.488E+06
  34    0.670    8.919    0.250     0.250     4.072    16.902  2.942E+05  2.081E+06
  35    0.690    9.169    0.250     0.250     3.644    15.349  2.152E+05  1.701E+06
  36    0.710    9.419    0.250     0.250     3.285    13.767  1.687E+05  1.439E+06
  37    0.730    9.669    0.250     0.250     2.926    12.186  1.221E+05  1.177E+06
  38    0.750    9.919    0.250     0.250     2.655    11.029  9.015E+04  9.682E+05
  39    0.770   10.169    0.250     0.250     2.443    10.166  6.818E+04  7.969E+05
  40    0.790   10.419    0.250     0.250     2.231     9.302  4.621E+04  6.256E+05
  41    0.810   10.669    0.250     0.250     2.042     8.690  3.592E+04  5.163E+05
  42    0.830   10.919    0.250     0.250     1.853     8.078  2.566E+04  4.071E+05
  43    0.850   11.169    0.250     0.250     1.644     7.330  1.735E+04  3.079E+05
  44    0.870   11.419    0.250     0.250     1.403     6.376  1.200E+04  2.239E+05
  45    0.890   11.669    0.250     0.250     1.161     5.423  6.647E+03  1.399E+05
  46    0.910   11.919    0.250     0.250     0.967     4.669  4.198E+03  9.515E+04
  47    0.930   12.169    0.250     0.250     0.786     3.968  2.531E+03  6.098E+04
  48    0.950   12.419    0.250     0.250     0.623     3.297  1.072E+03  3.080E+04
  49    0.970   12.669    0.250     0.250     0.551     2.774  7.019E+02  2.162E+04
  50    0.990   12.919    0.250     0.250     0.480     2.251  3.321E+02  1.244E+04


Interpolated blade 3 properties:

Node  BlFract   RNodes  DRNodes PitchAxis  StrcTwst  BMassDen    FlpStff    EdgStff
 (-)      (-)      (m)      (m)       (-)     (deg)    (kg/m)     (Nm^2)     (Nm^2)
   1    0.010    0.669    0.250     0.500    11.600   135.752  4.350E+07  4.350E+07
   2    0.030    0.919    0.250     0.464    10.903   116.812  4.105E+07  4.228E+07
   3    0.050    1.169    0.250     0.393     9.518    95.837  3.381E+07  3.749E+07
   4    0.070    1.419    0.250     0.322     8.133    74.862  2.656E+07  3.269E+07
   5    0.090    1.669    0.250     0.251     6.748    53.887  1.931E+07  2.789E+07
   6    0.110    1.919    0.250     0.250     8.624    51.343  1.688E+07  2.899E+07
   7    0.130    2.169    0.250     0.250     9.496    48.881  1.516E+07  2.975E+07
   8    0.150    2.419    0.250     0.250     9.845    46.511  1.374E+07  3.002E+07
   9    0.170    2.669    0.250     0.250     9.882    45.562  1.251E+07  2.845E+07
  10    0.190    2.919    0.250     0.250     9.901    44.578  1.145E+07  2.681E+07
  11    0.210    3.169    0.250     0.250     9.921    43.594  1.038E+07  2.517E+07
  12    0.230    3.419    0.250     0.250     9.862    42.549  9.447E+06  2.352E+07
  13    0.250    3.669    0.250     0.250     9.729    41.446  8.641E+06  2.185E+07
  14    0.270    3.919    0.250     0.250     9.596    40.342  7.834E+06  2.018E+07
  15    0.290    4.169    0.250     0.250     9.463    39.238  7.028E+06  1.852E+07
  16    0.310    4.419    0.250     0.250     9.330    38.135  6.221E+06  1.685E+07
  17    0.330    4.669    0.250     0.250     9.175    37.001  5.505E+06  1.535E+07
  18    0.350    4.919    0.250     0.250     8.977    35.803  4.978E+06  1.417E+07
  19    0.370    5.169    0.250     0.250     8.778    34.604  4.451E+06  1.299E+07
  20    0.390    5.419    0.250     0.250     8.579    33.406  3.924E+06  1.182E+07
  21    0.410    5.669    0.250     0.250     8.381    32.208  3.397E+06  1.064E+07
  22    0.430    5.919    0.250     0.250     8.174    30.990  2.894E+06  9.505E+06
  23    0.450    6.169    0.250     0.250     7.919    29.651  2.538E+06  8.617E+06
  24    0.470    6.419    0.250     0.250     7.665    28.312  2.181E+06  7.729E+06
  25    0.490    6.669    0.250     0.250     7.370    27.213  1.870E+06  6.933E+06
  26    0.510    6.919    0.250     0.250     7.042    26.310  1.594E+06  6.212E+06
  27    0.530    7.169    0.250     0.250     6.714    25.407  1.318E+06  5.490E+06
  28    0.550    7.419    0.250     0.250     6.456    24.553  1.122E+06  4.924E+06
  29    0.570    7.669    0.250     0.250     6.201    23.700  9.295E+05  4.365E+06
  30    0.590    7.919    0.250     0.250     5.873    22.663  7.566E+05  3.840E+06
  31    0.610    8.169    0.250     0.250     5.418    21.309  6.177E+05  3.374E+06
  32    0.630    8.419    0.250     0.250     4.962    19.954  4.788E+05  2.908E+06
  33    0.650    8.669    0.250     0.250     4.516    18.450  3.806E+05  2.488E+06
  34    0.670    8.919    0.250     0.250     4.072    16.902  2.942E+05  2.081E+06
  35    0.690    9.169    0.250     0.250     3.644    15.349  2.152E+05  1.701E+06
  36    0.710    9.419    0.250     0.250     3.285    13.767  1.687E+05  1.439E+06
  37    0.730    9.669    0.250     0.250     2.926    12.186  1.221E+05  1.177E+06
  38    0.750    9.919    0.250     0.250     2.655    11.029  9.015E+04  9.682E+05
  39    0.770   10.169    0.250     0.250     2.443    10.166  6.818E+04  7.969E+05
  40    0.790   10.419    0.250     0.250     2.231     9.302  4.621E+04  6.256E+05
  41    0.810   10.669    0.250     0.250     2.042     8.690  3.592E+04  5.163E+05
  42    0.830   10.919    0.250     0.250     1.853     8.078  2.566E+04  4.071E+05
  43    0.850   11.169    0.250     0.250     1.644     7.330  1.735E+04  3.079E+05
  44    0.870   11.419    0.250     0.250     1.403     6.376  1.200E+04  2.239E+05
  45    0.890   11.669    0.250     0.250     1.161     5.423  6.647E+03  1.399E+05
  46    0.910   11.919    0.250     0.250     0.967     4.669  4.198E+03  9.515E+04
  47    0.930   12.169    0.250     0.250     0.786     3.968  2.531E+03  6.098E+04
  48    0.950   12.419    0.250     0.250     0.623     3.297  1.072E+03  3.080E+04
  49    0.970   12.669    0.250     0.250     0.551     2.774  7.019E+02  2.162E+04
  50    0.990   12.919    0.250     0.250     0.480     2.251  3.321E+02  1.244E+04


Requested Outputs:


 Col   Parameter            Units               
 ---   ---------------      ---------------     
   0   Time                 (s)                 
   1   Azimuth              (deg)               
   2   NacYaw               (deg)               
   3   BldPitch1            (deg)               
   4   RotSpeed             (rpm)               
   5   GenSpeed             (rpm)               
   6   RotPwr               (kW)                
   7   YawBrTDxt            (m)                 
   8   YawBrTDyt            (m)                 
   9   RotThrust            (kN)                
  10   RotTorq              (kN-m)              


  Requested Output Channels at each blade station:
 Col   Parameter            Units               
 ---   ---------------      ---------------     
